LTspice 24.1.9 for Windows
Circuit: C:\Users\evanb\Documents\LTspice\Signal Generator\Draft1.net
Start Time: Mon Aug 11 23:55:22 2025
solver = Normal
Maximum thread count: 12
tnom = 27
temp = 27
method = trap
Direct Newton iteration for .op point succeeded.
Total elapsed time: 0.101 seconds.

Files loaded:
C:\Users\evanb\Documents\LTspice\Signal Generator\Draft1.net
C:\Users\evanb\AppData\Local\LTspice\lib\cmp\standard.bjt
C:\Users\evanb\Documents\LTspice\Signal Generator\LM324.MOD

