LTspice 24.1.9 for Windows
Circuit: C:\Users\evanb\Documents\LTspice\Draft1.net
Start Time: Fri Jun 27 02:04:23 2025
solver = Normal
Maximum thread count: 12
tnom = 27
temp = 27
method = trap
Direct Newton iteration for .op point succeeded.
Total elapsed time: 0.214 seconds.

Files loaded:
C:\Users\evanb\Documents\LTspice\Draft1.net
C:\Users\evanb\Documents\LTspice\LM324.MOD

