LTspice 26.0.1 for Windows
Circuit: C:\Users\evan.bhogal\OneDrive - De Havilland Aircraft of Canada Ltd\Documents\VCO\Signal-Generator\LM318 VCO (Adj DC input)\Draft5.net
Start Time: Fri Feb 20 15:22:00 2026
solver = Normal
Maximum thread count: 8
tnom = 27
temp = 27
method = trap
Early termination of direct N-R iteration.
Direct Newton iteration failed to find operating point.
Starting Gmin stepping
Gmin stepping succeeded in finding the operating point.

Total elapsed time: 38.487 seconds.

Files loaded:
C:\Users\evan.bhogal\OneDrive - De Havilland Aircraft of Canada Ltd\Documents\VCO\Signal-Generator\LM318 VCO (Adj DC input)\Draft5.net
C:\Users\evan.bhogal\AppData\Local\LTspice\lib\cmp\standard.bjt
C:\Users\evan.bhogal\OneDrive - De Havilland Aircraft of Canada Ltd\Documents\VCO\Signal-Generator\lib\LM318.lib

