LTspice 24.1.9 for Windows
Circuit: C:\Users\evanb\Documents\LTspice\VCO\Draft5.net
Start Time: Wed Feb 18 22:38:56 2026
solver = Normal
Maximum thread count: 12
tnom = 27
temp = 27
method = trap
Early termination of direct N-R iteration.
Direct Newton iteration failed to find .op point.  (Use ".option noopiter" to skip.)
Starting Gmin stepping
Gmin = 10
vernier = 0.5
vernier = 0.25
vernier = 0.125
Gmin = 4.96485
vernier = 0.0625
vernier = 0.03125
vernier = 0.015625
vernier = 0.0078125
vernier = 0.00390625
Gmin = 5.08031
vernier = 0.00195312
vernier = 0.000976562
vernier = 0.000488281
Gmin = 0
Gmin stepping succeeded in finding the operating point.

Total elapsed time: 0.302 seconds.

Files loaded:
C:\Users\evanb\Documents\LTspice\VCO\Draft5.net
C:\Users\evanb\AppData\Local\LTspice\lib\cmp\standard.bjt
C:\Users\evanb\Documents\LTspice\lib\LM318.lib

