LTspice 26.0.1 for Windows
Circuit: C:\Users\evan.bhogal\OneDrive - De Havilland Aircraft of Canada Ltd\Documents\VCO\Signal-Generator\LM318 VCO (Adj DC input)\Draft5.net
Start Time: Thu Feb 19 15:25:21 2026
Options:RELTOL=0.001      ; relative tolerance (default 0.1%) ABSTOL=10u         ; absolute current tolerance, 1 pA TRTOL=50           ; truncation error tolerance GMIN=1p           ; minimum conductance to ground GMINSTEPS=10      ; gradually reduce GMIN at startup
solver = Normal
Maximum thread count: 8
tnom = 27
temp = 27
method = trap
abstol = 1e-05
chgtol = 1e-08
trtol = 50
Early termination of direct N-R iteration.
Direct Newton iteration failed to find operating point.
Starting Gmin stepping
Gmin stepping succeeded in finding the operating point.

Total elapsed time: 3.627 seconds.

Files loaded:
C:\Users\evan.bhogal\OneDrive - De Havilland Aircraft of Canada Ltd\Documents\VCO\Signal-Generator\LM318 VCO (Adj DC input)\Draft5.net
C:\Users\evan.bhogal\AppData\Local\LTspice\lib\cmp\standard.bjt
C:\Users\evan.bhogal\OneDrive - De Havilland Aircraft of Canada Ltd\Documents\VCO\Signal-Generator\lib\LM318.lib

